Submit job << CW_VTI_syn_01 >> in : /home/rjcova/SeisElastic2D/EXAMPLES/CW_VTI_syn/submit_job  
Working directory: /home/rjcova/SeisElastic2D/EXAMPLES/CW_VTI_syn/submit_job/CW_VTI_syn_01/specfem/
FINAL results in :  /home/rjcova/SeisElastic2D/EXAMPLES/CW_VTI_syn/submit_job/RESULTS/inversion/Scale0_WD_AD
start time is :  14:08:08

Re-Starting job ...
Clean up result/DISK directories ...
prepare starting model ...

********************************************************************************************************
       Welcome job << inversion >> 
       Scale: '0'; measurement: 'WD'; misfit_type: 'AD' 
********************************************************************************************************

prepare data ...
0: allocate 1 sources over 1 tasks
0: iproc 0--1: nsrc_per_task=1
0: iproc 0-0: nsrc_per_task=1
0: iproc = 0, isource_start = 0, nsrc_this_task = 1, source: 1-1 
0: iproc = 0, isource = 1
0: SPECFEM2D Forward Modeling ...
0: NPROC_SPECFEM=8
0: data_tag=DATA_obs
0: data_list=x,z
0: velocity_dir=/home/rjcova/SeisElastic2D/EXAMPLES/CW_VTI_syn/model_true_bin
0: SAVE_FORWARD=false
0: WORKING_DIR=/home/rjcova/SeisElastic2D/EXAMPLES/CW_VTI_syn/submit_job/CW_VTI_syn_01/specfem/
0: DISK_DIR=/home/rjcova/SeisElastic2D/EXAMPLES/CW_VTI_syn/submit_job/CW_VTI_syn_01/output/
0: DATA_DIR=/home/rjcova/SeisElastic2D/EXAMPLES/CW_VTI_syn/submit_job/syn_data
0: job=inversion
0: try velocity directory: /home/rjcova/SeisElastic2D/EXAMPLES/CW_VTI_syn/model_true_bin
0: mpirun -np 8 ./bin/xspecfem2D
slurmstepd: error: *** JOB 82570 ON g1 CANCELLED AT 2019-04-08T14:08:54 ***
